<?xml version="1.0" encoding="UTF-8"?>

<!-- generated on 2024-01-17 16:59:28 by Eclipse SUMO netedit Version 1.14.1
<configuration xmlns:xsi="http://www.w3.org/2001/XMLSchema-instance" xsi:noNamespaceSchemaLocation="http://sumo.dlr.de/xsd/netconvertConfiguration.xsd">

    <input>
        <sumo-net-file value="G:\RLWRS_simulator\scott.net.xml"/>
    </input>

    <output>
        <output-file value="G:\RLWRS_simulator\scott.net.xml"/>
        <output.street-names value="true"/>
    </output>

    <processing>
        <geometry.min-radius.fix.railways value="false"/>
        <geometry.max-grade.fix value="false"/>
        <offset.disable-normalization value="true"/>
        <lefthand value="false"/>
    </processing>

    <junctions>
        <no-turnarounds value="true"/>
        <junctions.corner-detail value="5"/>
        <junctions.limit-turn-speed value="5.5"/>
        <rectangular-lane-cut value="false"/>
    </junctions>

    <pedestrian>
        <walkingareas value="false"/>
    </pedestrian>

</configuration>
-->

<net version="1.9" junctionCornerDetail="5" limitTurnSpeed="5.50" xmlns:xsi="http://www.w3.org/2001/XMLSchema-instance" xsi:noNamespaceSchemaLocation="http://sumo.dlr.de/xsd/net_file.xsd">

    <location netOffset="-465821.01,-4957533.53" convBoundary="0.00,8.51,1606.86,823.34" origBoundary="-93.431949,44.770433,-93.411640,44.777862" projParameter="+proj=utm +zone=15 +ellps=WGS84 +datum=WGS84 +units=m +no_defs"/>

    <type id="highway.bridleway" priority="1" numLanes="1" speed="2.78" allow="pedestrian" oneway="1" width="2.00"/>
    <type id="highway.bus_guideway" priority="1" numLanes="1" speed="24.60" allow="bus" oneway="1"/>
    <type id="highway.cycleway" priority="1" numLanes="1" speed="5.56" allow="bicycle" oneway="0" width="1.00"/>
    <type id="highway.footway" priority="1" numLanes="1" speed="2.78" allow="pedestrian" oneway="1" width="2.00"/>
    <type id="highway.ford" priority="1" numLanes="1" speed="2.78" allow="army" oneway="0"/>
    <type id="highway.living_street" priority="2" numLanes="1" speed="2.78" disallow="tram rail_urban rail rail_electric rail_fast ship" oneway="0"/>
    <type id="highway.motorway" priority="14" numLanes="2" speed="24.60" allow="private emergency authority army vip passenger hov taxi bus coach delivery truck trailer motorcycle evehicle custom1 custom2" oneway="1"/>
    <type id="highway.motorway_link" priority="9" numLanes="1" speed="22.22" allow="private emergency authority army vip passenger hov taxi bus coach delivery truck trailer motorcycle evehicle custom1 custom2" oneway="1"/>
    <type id="highway.path" priority="1" numLanes="1" speed="5.56" allow="pedestrian bicycle" oneway="0" width="2.00"/>
    <type id="highway.pedestrian" priority="1" numLanes="1" speed="2.78" allow="pedestrian" oneway="1" width="2.00"/>
    <type id="highway.primary" priority="12" numLanes="2" speed="24.60" disallow="tram rail_urban rail rail_electric rail_fast ship" oneway="0"/>
    <type id="highway.primary_link" priority="7" numLanes="1" speed="24.60" disallow="tram rail_urban rail rail_electric rail_fast ship" oneway="0"/>
    <type id="highway.raceway" priority="15" numLanes="2" speed="24.60" allow="vip" oneway="0"/>
    <type id="highway.residential" priority="3" numLanes="1" speed="13.89" disallow="tram rail_urban rail rail_electric rail_fast ship" oneway="0"/>
    <type id="highway.secondary" priority="11" numLanes="1" speed="24.60" disallow="tram rail_urban rail rail_electric rail_fast ship" oneway="0"/>
    <type id="highway.secondary_link" priority="6" numLanes="1" speed="22.22" disallow="tram rail_urban rail rail_electric rail_fast ship" oneway="0"/>
    <type id="highway.service" priority="1" numLanes="1" speed="5.56" allow="pedestrian delivery bicycle" oneway="0"/>
    <type id="highway.stairs" priority="1" numLanes="1" speed="1.39" allow="pedestrian" oneway="1" width="2.00"/>
    <type id="highway.step" priority="1" numLanes="1" speed="1.39" allow="pedestrian" oneway="1" width="2.00"/>
    <type id="highway.steps" priority="1" numLanes="1" speed="1.39" allow="pedestrian" oneway="1" width="2.00"/>
    <type id="highway.tertiary" priority="10" numLanes="1" speed="22.22" disallow="tram rail_urban rail rail_electric rail_fast ship" oneway="0"/>
    <type id="highway.tertiary_link" priority="5" numLanes="1" speed="22.22" disallow="tram rail_urban rail rail_electric rail_fast ship" oneway="0"/>
    <type id="highway.track" priority="1" numLanes="1" speed="5.56" allow="pedestrian motorcycle moped bicycle" oneway="0"/>
    <type id="highway.trunk" priority="13" numLanes="2" speed="24.60" disallow="pedestrian bicycle tram rail_urban rail rail_electric rail_fast ship" oneway="0"/>
    <type id="highway.trunk_link" priority="8" numLanes="1" speed="22.22" disallow="pedestrian bicycle tram rail_urban rail rail_electric rail_fast ship" oneway="0"/>
    <type id="highway.unclassified" priority="4" numLanes="1" speed="13.89" disallow="tram rail_urban rail rail_electric rail_fast ship" oneway="0"/>
    <type id="highway.unsurfaced" priority="1" numLanes="1" speed="8.33" disallow="tram rail_urban rail rail_electric rail_fast ship" oneway="0"/>
    <type id="railway.highspeed" priority="21" numLanes="1" speed="24.60" allow="rail_fast" oneway="1"/>
    <type id="railway.light_rail" priority="19" numLanes="1" speed="24.60" allow="rail_urban" oneway="1"/>
    <type id="railway.preserved" priority="16" numLanes="1" speed="24.60" allow="rail" oneway="1"/>
    <type id="railway.rail" priority="20" numLanes="1" speed="24.60" allow="rail" oneway="1"/>
    <type id="railway.subway" priority="18" numLanes="1" speed="24.60" allow="rail_urban" oneway="1"/>
    <type id="railway.tram" priority="17" numLanes="1" speed="13.89" allow="tram" oneway="1"/>

    <edge id=":7098519649_0" function="internal">
        <lane id=":7098519649_0_0" index="0" disallow="tram rail_urban rail rail_electric rail_fast ship" speed="22.22" length="8.21" shape="1225.78,521.96 1224.29,523.86 1223.57,525.39 1222.85,526.92 1221.36,528.81"/>
        <lane id=":7098519649_0_1" index="1" disallow="tram rail_urban rail rail_electric rail_fast ship" speed="22.22" length="8.21" shape="1223.49,519.73 1222.00,521.63 1221.27,523.16 1220.55,524.69 1219.06,526.58"/>
        <lane id=":7098519649_0_2" index="2" disallow="tram rail_urban rail rail_electric rail_fast ship" speed="22.22" length="8.21" shape="1221.19,517.50 1219.70,519.39 1218.98,520.93 1218.26,522.46 1216.77,524.35"/>
        <lane id=":7098519649_0_3" index="3" disallow="tram rail_urban rail rail_electric rail_fast ship" speed="22.22" length="8.21" shape="1221.19,517.50 1219.34,519.05 1217.83,519.81 1216.32,520.58 1214.47,522.12"/>
    </edge>
    <edge id=":7098519650_0" function="internal">
        <lane id=":7098519650_0_0" index="0" disallow="tram rail_urban rail rail_electric rail_fast ship" speed="22.22" length="8.20" shape="1272.91,474.02 1271.37,475.88 1270.60,477.40 1269.82,478.90 1268.25,480.74"/>
        <lane id=":7098519650_0_1" index="1" disallow="tram rail_urban rail rail_electric rail_fast ship" speed="22.22" length="8.20" shape="1270.68,471.73 1269.14,473.58 1268.38,475.09 1267.60,476.60 1266.05,478.43"/>
        <lane id=":7098519650_0_2" index="2" disallow="tram rail_urban rail rail_electric rail_fast ship" speed="22.22" length="8.20" shape="1270.68,471.73 1268.80,473.22 1267.27,473.94 1265.74,474.64 1263.84,476.11"/>
    </edge>
    <edge id=":9867471630_0" function="internal">
        <lane id=":9867471630_0_0" index="0" allow="private emergency authority army vip passenger hov taxi bus coach delivery truck trailer motorcycle evehicle custom1 custom2" speed="39.44" length="8.21" shape="1440.52,568.42 1439.14,566.44 1437.89,565.30 1436.63,564.16 1435.26,562.19"/>
        <lane id=":9867471630_0_1" index="1" allow="private emergency authority army vip passenger hov taxi bus coach delivery truck trailer motorcycle evehicle custom1 custom2" speed="39.44" length="8.21" shape="1443.32,566.87 1441.95,564.89 1440.69,563.75 1439.43,562.62 1438.06,560.64"/>
        <lane id=":9867471630_0_2" index="2" allow="private emergency authority army vip passenger hov taxi bus coach delivery truck trailer motorcycle evehicle custom1 custom2" speed="39.44" length="8.21" shape="1443.32,566.87 1442.38,564.65 1442.09,562.98 1441.80,561.31 1440.86,559.09"/>
    </edge>
    <edge id=":9867471631_0" function="internal">
        <lane id=":9867471631_0_0" index="0" allow="private emergency authority army vip passenger hov taxi bus coach delivery truck trailer motorcycle evehicle custom1 custom2" speed="39.44" length="8.32" shape="1422.33,540.67 1420.42,539.04 1418.61,538.50 1416.80,537.96 1414.89,536.33"/>
        <lane id=":9867471631_0_1" index="1" allow="private emergency authority army vip passenger hov taxi bus coach delivery truck trailer motorcycle evehicle custom1 custom2" speed="39.44" length="8.32" shape="1422.33,540.67 1417.42,534.36"/>
        <lane id=":9867471631_0_2" index="2" allow="private emergency authority army vip passenger hov taxi bus coach delivery truck trailer motorcycle evehicle custom1 custom2" speed="39.44" length="8.32" shape="1424.86,538.71 1419.94,532.39"/>
        <lane id=":9867471631_0_3" index="3" allow="private emergency authority army vip passenger hov taxi bus coach delivery truck trailer motorcycle evehicle custom1 custom2" speed="39.44" length="8.32" shape="1427.38,536.74 1422.47,530.43"/>
        <lane id=":9867471631_0_4" index="4" allow="private emergency authority army vip passenger hov taxi bus coach delivery truck trailer motorcycle evehicle custom1 custom2" speed="39.44" length="8.32" shape="1427.38,536.74 1426.26,534.49 1426.19,532.60 1426.11,530.71 1424.99,528.46"/>
    </edge>
    <edge id=":9897041784_0" function="internal">
        <lane id=":9897041784_0_0" index="0" disallow="tram rail_urban rail rail_electric rail_fast ship" speed="22.22" length="8.21" shape="1210.49,508.47 1211.99,506.58 1212.71,505.05 1213.44,503.52 1214.94,501.63"/>
        <lane id=":9897041784_0_1" index="1" disallow="tram rail_urban rail rail_electric rail_fast ship" speed="22.22" length="8.21" shape="1212.78,510.71 1214.28,508.82 1215.00,507.29 1215.73,505.76 1217.23,503.87"/>
        <lane id=":9897041784_0_2" index="2" disallow="tram rail_urban rail rail_electric rail_fast ship" speed="22.22" length="8.21" shape="1212.78,510.71 1214.63,509.17 1216.15,508.41 1217.66,507.65 1219.51,506.11"/>
    </edge>
    <edge id=":9897041785_0" function="internal">
        <lane id=":9897041785_0_0" index="0" disallow="tram rail_urban rail rail_electric rail_fast ship" speed="22.22" length="8.32" shape="1247.38,468.72 1248.76,466.62 1249.07,464.76 1249.37,462.89 1250.75,460.79"/>
        <lane id=":9897041785_0_1" index="1" disallow="tram rail_urban rail rail_electric rail_fast ship" speed="22.22" length="8.32" shape="1247.38,468.72 1253.02,463.05"/>
        <lane id=":9897041785_0_2" index="2" disallow="tram rail_urban rail rail_electric rail_fast ship" speed="22.22" length="8.32" shape="1249.65,470.98 1255.29,465.30"/>
        <lane id=":9897041785_0_3" index="3" disallow="tram rail_urban rail rail_electric rail_fast ship" speed="22.22" length="8.32" shape="1251.92,473.23 1257.56,467.56"/>
        <lane id=":9897041785_0_4" index="4" disallow="tram rail_urban rail rail_electric rail_fast ship" speed="22.22" length="8.32" shape="1251.92,473.23 1254.01,471.84 1255.87,471.52 1257.74,471.21 1259.83,469.82"/>
    </edge>
    <edge id=":9897089467_0" function="internal">
        <lane id=":9897089467_0_0" index="0" disallow="tram rail_urban rail rail_electric rail_fast ship" speed="27.78" length="8.21" shape="1483.88,260.12 1482.41,262.03 1481.71,263.57 1481.00,265.11 1479.53,267.02"/>
        <lane id=":9897089467_0_1" index="1" disallow="tram rail_urban rail rail_electric rail_fast ship" speed="27.78" length="8.21" shape="1481.56,257.92 1480.09,259.83 1479.39,261.37 1478.68,262.91 1477.21,264.82"/>
        <lane id=":9897089467_0_2" index="2" disallow="tram rail_urban rail rail_electric rail_fast ship" speed="27.78" length="8.21" shape="1481.56,257.92 1479.73,259.48 1478.23,260.27 1476.73,261.05 1474.89,262.61"/>
    </edge>
    <edge id=":9897089468_0" function="internal">
        <lane id=":9897089468_0_0" index="0" disallow="tram rail_urban rail rail_electric rail_fast ship" speed="27.78" length="8.21" shape="1449.15,298.86 1447.67,300.75 1446.95,302.29 1446.23,303.82 1444.75,305.72"/>
        <lane id=":9897089468_0_1" index="1" disallow="tram rail_urban rail rail_electric rail_fast ship" speed="27.78" length="8.21" shape="1446.85,296.63 1445.36,298.53 1444.65,300.07 1443.93,301.60 1442.44,303.50"/>
        <lane id=":9897089468_0_2" index="2" disallow="tram rail_urban rail rail_electric rail_fast ship" speed="27.78" length="8.21" shape="1444.55,294.41 1443.06,296.31 1442.34,297.84 1441.63,299.38 1440.14,301.28"/>
        <lane id=":9897089468_0_3" index="3" disallow="tram rail_urban rail rail_electric rail_fast ship" speed="27.78" length="8.21" shape="1444.55,294.41 1442.70,295.96 1441.19,296.73 1439.68,297.50 1437.84,299.06"/>
    </edge>
    <edge id=":9897089469_0" function="internal">
        <lane id=":9897089469_0_0" index="0" disallow="tram rail_urban rail rail_electric rail_fast ship" speed="27.78" length="8.21" shape="1414.11,337.40 1412.62,339.29 1411.90,340.83 1411.18,342.36 1409.69,344.26"/>
        <lane id=":9897089469_0_1" index="1" disallow="tram rail_urban rail rail_electric rail_fast ship" speed="27.78" length="8.21" shape="1411.81,335.17 1410.32,337.07 1409.60,338.60 1408.88,340.13 1407.39,342.03"/>
        <lane id=":9897089469_0_2" index="2" disallow="tram rail_urban rail rail_electric rail_fast ship" speed="27.78" length="8.21" shape="1409.51,332.94 1408.03,334.84 1407.31,336.37 1406.59,337.91 1405.10,339.80"/>
        <lane id=":9897089469_0_3" index="3" disallow="tram rail_urban rail rail_electric rail_fast ship" speed="27.78" length="8.21" shape="1407.22,330.72 1405.73,332.61 1405.01,334.15 1404.29,335.68 1402.80,337.58"/>
        <lane id=":9897089469_0_4" index="4" disallow="tram rail_urban rail rail_electric rail_fast ship" speed="27.78" length="8.21" shape="1407.22,330.72 1405.37,332.26 1403.86,333.03 1402.35,333.80 1400.50,335.35"/>
    </edge>
    <edge id=":cluster_1429097112_188038948_188045367_537321171_0" function="internal">
        <lane id=":cluster_1429097112_188038948_188045367_537321171_0_0" index="0" allow="private emergency authority army vip passenger hov taxi bus coach delivery truck trailer motorcycle evehicle custom1 custom2" speed="6.83" length="10.35" shape="1330.85,428.38 1328.62,426.09 1326.41,424.99 1324.22,425.05 1322.05,426.29"/>
    </edge>
    <edge id=":cluster_1429097112_188038948_188045367_537321171_1" function="internal">
        <lane id=":cluster_1429097112_188038948_188045367_537321171_1_0" index="0" allow="private emergency authority army vip passenger hov taxi bus coach delivery truck trailer motorcycle evehicle custom1 custom2" speed="33.61" length="40.33" shape="1333.38,426.42 1307.69,395.52"/>
        <lane id=":cluster_1429097112_188038948_188045367_537321171_1_1" index="1" allow="private emergency authority army vip passenger hov taxi bus coach delivery truck trailer motorcycle evehicle custom1 custom2" speed="33.61" length="40.33" shape="1335.91,424.47 1310.04,393.35"/>
    </edge>
    <edge id=":cluster_1429097112_188038948_188045367_537321171_3" function="internal">
        <lane id=":cluster_1429097112_188038948_188045367_537321171_3_0" index="0" allow="private emergency authority army vip passenger hov taxi bus coach delivery truck trailer motorcycle evehicle custom1 custom2" speed="14.49" length="43.35" shape="1338.45,422.51 1335.15,413.77 1333.63,400.95 1334.15,388.37 1337.00,380.35"/>
        <lane id=":cluster_1429097112_188038948_188045367_537321171_3_1" index="1" allow="private emergency authority army vip passenger hov taxi bus coach delivery truck trailer motorcycle evehicle custom1 custom2" speed="13.81" length="39.28" shape="1340.98,420.56 1337.66,412.46 1336.08,401.05 1336.54,389.89 1339.31,382.56"/>
    </edge>
    <edge id=":cluster_1429097112_188038948_188045367_537321171_5" function="internal">
        <lane id=":cluster_1429097112_188038948_188045367_537321171_5_0" index="0" allow="private emergency authority army vip passenger hov taxi bus coach delivery truck trailer motorcycle evehicle custom1 custom2" speed="7.36" length="10.35" shape="1357.35,399.72 1355.50,402.21 1354.64,404.58 1354.78,406.86 1355.92,409.03"/>
    </edge>
    <edge id=":cluster_1429097112_188038948_188045367_537321171_6" function="internal">
        <lane id=":cluster_1429097112_188038948_188045367_537321171_6_0" index="0" disallow="tram rail_urban rail rail_electric rail_fast ship" speed="25.00" length="43.65" shape="1355.04,397.52 1344.67,407.87 1335.82,415.50 1328.33,421.33 1322.05,426.29"/>
        <lane id=":cluster_1429097112_188038948_188045367_537321171_6_1" index="1" disallow="tram rail_urban rail rail_electric rail_fast ship" speed="25.00" length="43.65" shape="1352.72,395.31 1342.44,405.57 1333.68,413.12 1326.25,418.90 1319.99,423.84"/>
    </edge>
    <edge id=":cluster_1429097112_188038948_188045367_537321171_8" function="internal">
        <lane id=":cluster_1429097112_188038948_188045367_537321171_8_0" index="0" disallow="tram rail_urban rail rail_electric rail_fast ship" speed="13.45" length="44.43" shape="1350.40,393.11 1342.02,397.15 1329.04,399.20 1316.06,398.81 1307.69,395.52"/>
        <lane id=":cluster_1429097112_188038948_188045367_537321171_8_1" index="1" disallow="tram rail_urban rail rail_electric rail_fast ship" speed="12.77" length="39.92" shape="1348.08,390.90 1340.43,394.95 1329.05,397.01 1317.68,396.63 1310.04,393.35"/>
    </edge>
    <edge id=":cluster_1429097112_188038948_188045367_537321171_10" function="internal">
        <lane id=":cluster_1429097112_188038948_188045367_537321171_10_0" index="0" disallow="tram rail_urban rail rail_electric rail_fast ship" speed="7.45" length="12.03" shape="1326.46,378.20 1329.63,380.65 1332.44,381.83 1334.89,381.73 1337.00,380.35"/>
    </edge>
    <edge id=":cluster_1429097112_188038948_188045367_537321171_11" function="internal">
        <lane id=":cluster_1429097112_188038948_188045367_537321171_11_0" index="0" allow="private emergency authority army vip passenger hov taxi bus coach delivery truck trailer motorcycle evehicle custom1 custom2" speed="33.61" length="42.53" shape="1326.46,378.20 1333.30,384.77 1341.65,393.19 1349.77,401.83 1355.92,409.03"/>
        <lane id=":cluster_1429097112_188038948_188045367_537321171_11_1" index="1" allow="private emergency authority army vip passenger hov taxi bus coach delivery truck trailer motorcycle evehicle custom1 custom2" speed="33.61" length="42.53" shape="1324.10,380.37 1330.91,386.91 1339.20,395.26 1347.26,403.82 1353.39,410.98"/>
    </edge>
    <edge id=":cluster_1429097112_188038948_188045367_537321171_13" function="internal">
        <lane id=":cluster_1429097112_188038948_188045367_537321171_13_0" index="0" disallow="tram rail_urban rail rail_electric rail_fast ship" speed="13.37" length="45.36" shape="1324.10,380.37 1327.16,388.91 1327.04,402.22 1324.41,415.48 1319.99,423.84"/>
    </edge>
    <edge id=":cluster_1429097112_188038948_188045367_537321171_14" function="internal">
        <lane id=":cluster_1429097112_188038948_188045367_537321171_14_0" index="0" disallow="tram rail_urban rail rail_electric rail_fast ship" speed="7.41" length="12.01" shape="1304.78,405.82 1307.48,402.86 1308.86,400.15 1308.93,397.70 1307.69,395.52"/>
    </edge>
    <edge id=":cluster_1429097112_188038948_188045367_537321171_15" function="internal">
        <lane id=":cluster_1429097112_188038948_188045367_537321171_15_0" index="0" disallow="tram rail_urban rail rail_electric rail_fast ship" speed="25.00" length="41.26" shape="1306.85,408.27 1337.00,380.35"/>
        <lane id=":cluster_1429097112_188038948_188045367_537321171_15_1" index="1" disallow="tram rail_urban rail rail_electric rail_fast ship" speed="25.00" length="41.26" shape="1308.91,410.72 1339.31,382.56"/>
    </edge>
    <edge id=":cluster_1429097112_188038948_188045367_537321171_17" function="internal">
        <lane id=":cluster_1429097112_188038948_188045367_537321171_17_0" index="0" allow="private emergency authority army vip passenger hov taxi bus coach delivery truck trailer motorcycle evehicle custom1 custom2" speed="13.70" length="46.58" shape="1310.98,413.17 1320.06,409.07 1334.03,406.42 1347.72,406.11 1355.92,409.03"/>
        <lane id=":cluster_1429097112_188038948_188045367_537321171_17_1" index="1" allow="private emergency authority army vip passenger hov taxi bus coach delivery truck trailer motorcycle evehicle custom1 custom2" speed="13.05" length="42.12" shape="1313.05,415.62 1321.42,411.47 1333.85,408.69 1345.96,408.22 1353.39,410.98"/>
    </edge>

    <edge id="1075973734" from="9867471631" to="cluster_1429097112_188038948_188045367_537321171" name="Herrgott Memorial Drive" priority="14" type="highway.motorway" spreadType="center" shape="1422.40,535.55 1399.23,505.79 1379.23,480.10 1336.78,425.58 1330.29,417.24">
        <lane id="1075973734_0" index="0" allow="private emergency authority army vip passenger hov taxi bus coach delivery truck trailer motorcycle evehicle custom1 custom2" speed="39.44" length="136.78" shape="1414.89,536.33 1394.18,509.72 1374.18,484.03 1331.73,429.51 1330.85,428.38">
            <param key="origId" value="1075973734"/>
        </lane>
        <lane id="1075973734_1" index="1" allow="private emergency authority army vip passenger hov taxi bus coach delivery truck trailer motorcycle evehicle custom1 custom2" speed="39.44" length="136.78" shape="1417.42,534.36 1396.71,507.76 1376.71,482.07 1334.26,427.55 1333.38,426.42">
            <param key="origId" value="1075973734"/>
        </lane>
        <lane id="1075973734_2" index="2" allow="private emergency authority army vip passenger hov taxi bus coach delivery truck trailer motorcycle evehicle custom1 custom2" speed="39.44" length="136.78" shape="1419.94,532.39 1399.23,505.79 1379.23,480.10 1336.78,425.58 1335.91,424.47">
            <param key="origId" value="1075973734"/>
        </lane>
        <lane id="1075973734_3" index="3" allow="private emergency authority army vip passenger hov taxi bus coach delivery truck trailer motorcycle evehicle custom1 custom2" speed="39.44" length="136.78" shape="1422.47,530.43 1401.75,503.82 1381.75,478.13 1339.30,423.61 1338.45,422.51">
            <param key="origId" value="1075973734"/>
        </lane>
        <lane id="1075973734_4" index="4" allow="private emergency authority army vip passenger hov taxi bus coach delivery truck trailer motorcycle evehicle custom1 custom2" speed="39.44" length="136.78" shape="1424.99,528.46 1404.28,501.86 1384.28,476.17 1341.83,421.65 1340.98,420.56">
            <param key="origId" value="1075973734"/>
        </lane>
        <param key="origTo" value="188038948"/>
        <param key="ref" value="CR 21"/>
    </edge>
    <edge id="1075973735" from="9867471630" to="9867471631" name="Herrgott Memorial Drive" priority="14" type="highway.motorway" spreadType="center" shape="1439.99,564.14 1428.62,543.55 1422.40,535.55">
        <lane id="1075973735_0" index="0" allow="private emergency authority army vip passenger hov taxi bus coach delivery truck trailer motorcycle evehicle custom1 custom2" speed="39.44" length="25.65" shape="1435.26,562.19 1425.94,545.32 1422.33,540.67">
            <param key="origId" value="1075973735"/>
        </lane>
        <lane id="1075973735_1" index="1" allow="private emergency authority army vip passenger hov taxi bus coach delivery truck trailer motorcycle evehicle custom1 custom2" speed="39.44" length="25.65" shape="1438.06,560.64 1428.62,543.55 1424.86,538.71">
            <param key="origId" value="1075973735"/>
        </lane>
        <lane id="1075973735_2" index="2" allow="private emergency authority army vip passenger hov taxi bus coach delivery truck trailer motorcycle evehicle custom1 custom2" speed="39.44" length="25.65" shape="1440.86,559.09 1431.30,541.78 1427.38,536.74">
            <param key="origId" value="1075973735"/>
        </lane>
        <param key="ref" value="CR 21"/>
    </edge>
    <edge id="1079715719" from="537321144" to="9897041784" name="Southbridge Parkway" priority="10" type="highway.tertiary" spreadType="center" shape="1150.68,570.06 1155.45,565.45 1183.51,538.36 1214.43,506.73">
        <lane id="1079715719_0" index="0" disallow="tram rail_urban rail rail_electric rail_fast ship" speed="22.22" length="85.87" shape="1149.57,568.91 1154.34,564.30 1182.38,537.22 1210.49,508.47">
            <param key="origId" value="1079715719"/>
        </lane>
        <lane id="1079715719_1" index="1" disallow="tram rail_urban rail rail_electric rail_fast ship" speed="22.22" length="85.87" shape="1151.79,571.21 1156.56,566.60 1184.64,539.50 1212.78,510.71">
            <param key="origId" value="1079715719"/>
        </lane>
    </edge>
    <edge id="1079715722" from="9897041784" to="9897041785" name="Southbridge Parkway" priority="10" type="highway.tertiary" spreadType="center" shape="1214.43,506.73 1233.42,487.30 1252.47,468.14">
        <lane id="1079715722_0" index="0" disallow="tram rail_urban rail rail_electric rail_fast ship" speed="22.22" length="46.19" shape="1214.94,501.63 1231.14,485.05 1247.38,468.72">
            <param key="origId" value="1079715722"/>
        </lane>
        <lane id="1079715722_1" index="1" disallow="tram rail_urban rail rail_electric rail_fast ship" speed="22.22" length="46.19" shape="1217.23,503.87 1233.42,487.30 1249.65,470.98">
            <param key="origId" value="1079715722"/>
        </lane>
        <lane id="1079715722_2" index="2" disallow="tram rail_urban rail rail_electric rail_fast ship" speed="22.22" length="46.19" shape="1219.51,506.11 1235.70,489.55 1251.92,473.23">
            <param key="origId" value="1079715722"/>
        </lane>
    </edge>
    <edge id="1079719941" from="538134956" to="9897089467" name="County Road 18" priority="11" type="highway.secondary" spreadType="center" shape="1606.86,130.09 1600.77,136.19 1572.48,164.53 1537.83,200.67 1509.41,229.03 1483.05,258.67 1479.97,261.92">
        <lane id="1079719941_0" index="0" disallow="tram rail_urban rail rail_electric rail_fast ship" speed="27.78" length="179.02" shape="1607.99,131.22 1601.90,137.32 1573.62,165.65 1538.97,201.79 1510.57,230.13 1484.23,259.75 1483.88,260.12">
            <param key="origId" value="1079719941"/>
        </lane>
        <lane id="1079719941_1" index="1" disallow="tram rail_urban rail rail_electric rail_fast ship" speed="27.78" length="179.02" shape="1605.73,128.96 1599.64,135.06 1571.34,163.41 1536.69,199.55 1508.25,227.93 1481.87,257.59 1481.56,257.92">
            <param key="origId" value="1079719941"/>
        </lane>
        <param key="ref" value="CR 18"/>
    </edge>
    <edge id="1079719942" from="9897089467" to="9897089468" name="County Road 18" priority="11" type="highway.secondary" spreadType="center" shape="1479.97,261.92 1454.69,288.52 1444.07,299.51">
        <lane id="1079719942_0" index="0" disallow="tram rail_urban rail rail_electric rail_fast ship" speed="27.78" length="43.98" shape="1479.53,267.02 1457.00,290.73 1449.15,298.86">
            <param key="origId" value="1079719942"/>
        </lane>
        <lane id="1079719942_1" index="1" disallow="tram rail_urban rail rail_electric rail_fast ship" speed="27.78" length="43.98" shape="1477.21,264.82 1454.69,288.52 1446.85,296.63">
            <param key="origId" value="1079719942"/>
        </lane>
        <lane id="1079719942_2" index="2" disallow="tram rail_urban rail rail_electric rail_fast ship" speed="27.78" length="43.98" shape="1474.89,262.61 1452.38,286.31 1444.55,294.41">
            <param key="origId" value="1079719942"/>
        </lane>
        <param key="ref" value="CR 18"/>
    </edge>
    <edge id="1079719943" from="9897089468" to="9897089469" name="County Road 18" priority="11" type="highway.secondary" spreadType="center" shape="1444.07,299.51 1429.34,314.78 1407.88,336.93">
        <lane id="1079719943_0" index="0" disallow="tram rail_urban rail rail_electric rail_fast ship" speed="27.78" length="44.06" shape="1444.75,305.72 1432.79,318.12 1414.11,337.40">
            <param key="origId" value="1079719943"/>
        </lane>
        <lane id="1079719943_1" index="1" disallow="tram rail_urban rail rail_electric rail_fast ship" speed="27.78" length="44.06" shape="1442.44,303.50 1430.49,315.89 1411.81,335.17">
            <param key="origId" value="1079719943"/>
        </lane>
        <lane id="1079719943_2" index="2" disallow="tram rail_urban rail rail_electric rail_fast ship" speed="27.78" length="44.06" shape="1440.14,301.28 1428.19,313.67 1409.51,332.94">
            <param key="origId" value="1079719943"/>
        </lane>
        <lane id="1079719943_3" index="3" disallow="tram rail_urban rail rail_electric rail_fast ship" speed="27.78" length="44.06" shape="1437.84,299.06 1425.89,311.44 1407.22,330.72">
            <param key="origId" value="1079719943"/>
        </lane>
        <param key="ref" value="CR 18"/>
    </edge>